  1015.62  297.679  16.3338
  100  297.7217238322477  15.3303407949602 -8.764263723990368 -2.383082345964728 -7.091857653786228 2.85151173965707 -0.0005214205815457041
  200  297.746553536539  14.9234661305452 -9.188356662699352 -2.481660150304706 -10.22642792260435 0.5825404716116981 -0.000887688736247646
  300  297.7513642600779  14.86042930460218 -9.372497821561613 -2.505894417763707 -10.04348770226488 0.4287359725689733 -0.001161388163288849
  400  297.8146736431706  14.71557198139978 -9.54202751725632 -2.50288199265825 -9.884909626168072 0.3033519466852899 -0.001410823053778779
  500  297.9491796032493  14.46201865471343 -9.699895898300454 -2.461864525885132 -9.767702164932569 0.2230391149420231 -0.00161834897147703
  600  298.1265933543726  14.14784696591705 -9.816247475150684 -2.405448318210577 -9.626802366088517 0.1403267617058654 -0.001801498646254548
  700  298.5181480677012  13.42404812573696 -9.741383674576522 -2.255154220131678 -9.385643757310751 0.04728923468402117 -0.001889885282825495
  800  298.9228818884852  12.69748962405835 -9.663968249133136 -2.104226756835519 -9.140522173933793 -0.04639731173316997 -0.001978899527028185
  900  299.3517733625141  12.09731393695125 -9.45720859787553 -1.955256600382678 -8.767435044421998 -0.1966927103972588 -0.002040857589988818
  1000  299.7884682322184  11.52928722271924 -9.225469258822949 -1.806886408737577 -8.37409419797916 -0.3544469051359047 -0.002108409865168448
  1100  300.2376748959567  11.03042563975263 -8.962521974929549 -1.686063341598161 -7.996488090037161 -0.4953127416224711 -0.002160201213380023
  1200  300.6952621673735  10.60519054075688 -8.662531905248997 -1.587782740622854 -7.627339717161326 -0.6172690238378452 -0.002189154291557164
  1300  301.1670253457179  10.17604891553818 -8.360686951815996 -1.493969561990131 -7.260890278883394 -0.7396655107399704 -0.00222354814937615
  1400  301.6617467956252  9.751616525755557 -8.042670297272227 -1.431045549090813 -6.889227658352441 -0.8652093479438931 -0.002188032636136653
  1500  302.1682655022788  9.327835981219645 -7.724440097456001 -1.368104549771321 -6.516697913973668 -0.9907877958283949 -0.002147824019502113
  1600  302.7207879304501  8.854125680058793 -7.420844865790142 -1.306563479838452 -6.160352660271021 -1.077875683679118 -0.002186514827874872
  1700  303.3083581364351  8.353658511668861 -7.130178490241763 -1.245677113382981 -5.809741295417579 -1.140007714120146 -0.002255340692274789
  1800  303.9023934122329  7.862123212464478 -6.842329942326315 -1.183001271779125 -5.460893748935858 -1.198155230992892 -0.002364115980986588
  1900  304.4992323524584  7.395881816355971 -6.561719280562552 -1.124849913544355 -5.12901987777553 -1.23083350247119 -0.002617338308737264
  2000  305.1100048544025  6.929217086634854 -6.281680692499547 -1.067204381710926 -4.798016627212173 -1.263686464928574 -0.002876072392149037
  2100  305.7354551087201  6.452975788833243 -5.999603556602725 -1.033210525351268 -4.51758613127686 -1.296144636010795 -0.003183062665543927
  2200  306.3796142972683  5.964125829915893 -5.710648451333314 -1.021624985839925 -4.283913570538579 -1.337337436411369 -0.003533864307449295
  2300  307.0376711618737  5.474097187031034 -5.422039517465488 -1.010676218204244 -4.049764595669676 -1.378180875730182 -0.003888834555549695
  2400  307.728084266906  5.015768505560926 -5.158166638411149 -1.060413502267005 -3.904285302044129 -1.380753109451667 -0.004160100288720384
  2500  308.425974794732  4.572744939297089 -4.901978198230347 -1.117960769652584 -3.776379823348783 -1.379647583216152 -0.004436977863047321
  2600  309.1181784824327  4.154104604269951 -4.65203756584835 -1.167723148898778 -3.65077708719449 -1.375998286185481 -0.004702774527156999
  2700  309.6629581694461  3.917224467066597 -4.480028250251051 -1.185416302301089 -3.561262212992069 -1.342378463726284 -0.00495767810287499
  2800  310.2180485247249  3.682212869057404 -4.309886271079508 -1.203821198152405 -3.473197719952974 -1.308532416603245 -0.005211498570336248
  2900  310.7859589408744  3.447201271048211 -4.13974429190796 -1.222226094003722 -3.385133226913878 -1.274686369480206 -0.005470520265248092
  3000  311.3670603557329  3.212189673039022 -3.969602312736419 -1.240630989855037 -3.297068733874782 -1.240840322357164 -0.005734933950735343
  3100  311.9617389370877  2.977178075029823 -3.79946033356487 -1.259035885706353 -3.209004240835689 -1.206994275234124 -0.006004939834405186
  3200  312.5148884633992  2.776184161629429 -3.638819632037133 -1.25435949713124 -3.091552166491742 -1.168538925457267 -0.006201497946133871
  3300  312.9822481045961  2.62530422506843 -3.50219510719089 -1.235025403327545 -2.93142647130589 -1.131475180144304 -0.00625553073951401
  3400  313.461911780833  2.47442428850743 -3.365570582344646 -1.21569130952385 -2.771300776120046 -1.094411434831339 -0.006310559936722352
  3500  313.9542390701142  2.323544351946432 -3.228946057498397 -1.196357215720156 -2.611175080934197 -1.057347689518374 -0.006366621447915309
  3600  314.459604370149  2.172664415385431 -3.092321532652156 -1.177023121916462 -2.451049385748349 -1.020283944205411 -0.00642375292963495
  3700  314.9783976977064  2.021784478824431 -2.955697007805912 -1.157689028112766 -2.290923690562501 -0.9832201988924451 -0.00648199389226648
  3800  315.4937752023517  1.881359090092686 -2.812711513697634 -1.15384728646174 -2.118786383651571 -0.9587113589861824 -0.006532107149182623
  3900  315.9629182053146  1.765679572994015 -2.646102054699259 -1.180909140230248 -1.913948203118266 -0.9733444807934839 -0.006532757745572072
  4000  316.4445024500448  1.650074730326605 -2.479303587894758 -1.208007005973067 -1.709134814706218 -0.9880205203836313 -0.006534519509054035
  4100  316.9390531813107  1.534469887659198 -2.312505121090259 -1.235104871715886 -1.504321426294167 -1.002696559973781 -0.006536362335035192
  4200  317.446957560943  1.418865044991788 -2.145706654285763 -1.262202737458705 -1.299508037882116 -1.01737259956393 -0.006538289638646231
  4300  317.9686190571817  1.303260202324381 -1.978908187481262 -1.289300603201524 -1.094694649470067 -1.032048639154078 -0.00654030502737901
  4400  318.5040556151407  1.187929014101979 -1.812216774473108 -1.31630231595333 -0.8900853487766892 -1.046973554838783 -0.006542598658751079
  4500  318.9866087221082  1.13288712598842 -1.591579261356403 -1.333363609426099 -0.6156595996108845 -1.129297447229009 -0.006477510879743344
  4600  319.457251520477  1.093295248841366 -1.354396625755271 -1.347295427703238 -0.3301595605558817 -1.221576127687832 -0.00638291782696511
  4700  319.9409749328321  1.05370337169431 -1.117213990154138 -1.361227245980376 -0.04465952150087909 -1.313854808146655 -0.006286491182471442
  4800  320.4381720064828  1.014111494547256 -0.8800313545530059 -1.375159064257516 0.2408405175541242 -1.406133488605475 -0.006188161661493431
  4900  320.9492524292376  0.9745196174002013 -0.6428487189518722 -1.389090882534653 0.5263405566091262 -1.498412169064299 -0.006087856443887386
  5000  321.4746434514346  0.9349277402531468 -0.4056660833507401 -1.403022700811794 0.8118405956641278 -1.590690849523122 -0.00598549894571262
